Version 4
SHEET 1 1524 680
WIRE 240 -144 -32 -144
WIRE 688 -144 240 -144
WIRE 688 -96 688 -144
WIRE 240 -64 240 -144
WIRE 240 48 240 16
WIRE 240 48 -16 48
WIRE 304 48 240 48
WIRE -16 64 -16 48
WIRE 240 128 240 48
WIRE -272 176 -352 176
WIRE -160 176 -208 176
WIRE -16 176 -16 144
WIRE -16 176 -80 176
WIRE 96 176 -16 176
WIRE 176 176 96 176
WIRE 560 192 512 192
WIRE 688 192 688 -16
WIRE 688 192 640 192
WIRE 752 192 688 192
WIRE 896 192 816 192
WIRE -352 208 -352 176
WIRE -16 208 -16 176
WIRE 688 240 688 192
WIRE 896 240 896 192
WIRE 240 288 240 224
WIRE 272 288 240 288
WIRE 512 288 512 192
WIRE 512 288 336 288
WIRE 624 288 512 288
WIRE 96 304 96 176
WIRE 96 384 96 368
WIRE 240 384 240 288
WIRE 240 384 96 384
WIRE 96 416 96 384
FLAG 96 480 0
FLAG 240 464 0
FLAG -112 -144 0
FLAG -352 288 0
FLAG -16 288 0
FLAG 896 320 0
FLAG 368 48 0
FLAG 688 336 0
SYMBOL npn 176 128 R0
SYMATTR InstName Q1
SYMATTR Value 2N3904
SYMBOL cap 80 304 R0
SYMATTR InstName C1
SYMATTR Value 120p
SYMBOL cap 80 416 R0
SYMATTR InstName C2
SYMATTR Value 120p
SYMBOL res 224 368 R0
SYMATTR InstName R1
SYMATTR Value 220
SYMBOL voltage -16 -144 R90
WINDOW 0 -32 56 VBottom 2
WINDOW 3 32 56 VTop 2
WINDOW 123 0 0 Left 0
WINDOW 39 0 0 Left 0
SYMATTR InstName V1
SYMATTR Value 5V
SYMBOL cap -208 160 R90
WINDOW 0 0 32 VBottom 2
WINDOW 3 32 32 VTop 2
SYMATTR InstName C4
SYMATTR Value 7p
SYMBOL voltage -352 192 R0
WINDOW 123 0 0 Left 0
WINDOW 39 0 0 Left 0
SYMATTR InstName V2
SYMATTR Value SINE(0 1 10meg)
SYMBOL cap 336 272 R90
WINDOW 0 0 32 VBottom 2
WINDOW 3 32 32 VTop 2
SYMATTR InstName C3
SYMATTR Value 120p
SYMBOL res -64 160 R90
WINDOW 0 0 56 VBottom 2
WINDOW 3 32 56 VTop 2
SYMATTR InstName R2
SYMATTR Value 30
SYMBOL res 672 -112 R0
SYMATTR InstName R7
SYMATTR Value 50
SYMBOL npn 624 240 R0
SYMATTR InstName Q2
SYMATTR Value 2N3904
SYMBOL cap 816 176 R90
WINDOW 0 0 32 VBottom 2
WINDOW 3 32 32 VTop 2
SYMATTR InstName C6
SYMATTR Value .1µ
SYMBOL res -32 48 R0
SYMATTR InstName R3
SYMATTR Value 10k
SYMBOL res -32 192 R0
SYMATTR InstName R5
SYMATTR Value 10k
SYMBOL res 656 176 R90
WINDOW 0 0 56 VBottom 2
WINDOW 3 32 56 VTop 2
SYMATTR InstName R4
SYMATTR Value 10k
SYMBOL res 880 224 R0
SYMATTR InstName R10
SYMATTR Value 50
SYMBOL res 224 -80 R0
SYMATTR InstName R6
SYMATTR Value 1k
SYMBOL cap 368 32 R90
WINDOW 0 0 32 VBottom 2
WINDOW 3 32 32 VTop 2
SYMATTR InstName C5
SYMATTR Value .1µ
TEXT -224 504 Left 2 !.tran 0 .001 .000999
TEXT 16 -176 Left 2 ;TRY THIS CONFIG: R3, R6
TEXT 752 -56 Left 2 ;250 mW
