Version 4
SHEET 1 880 680
WIRE 224 -112 224 -144
WIRE 352 -112 224 -112
WIRE 224 -64 224 -112
WIRE 352 -64 352 -112
WIRE 96 64 80 64
WIRE 224 64 224 16
WIRE 224 64 176 64
WIRE 256 64 224 64
WIRE 352 64 352 16
WIRE 352 64 320 64
WIRE 352 80 352 64
WIRE 224 112 224 64
WIRE -352 160 -416 160
WIRE -224 160 -272 160
WIRE -80 160 -80 128
WIRE -80 160 -160 160
WIRE -16 160 -80 160
WIRE 80 160 80 64
WIRE 80 160 48 160
WIRE 160 160 80 160
WIRE -80 192 -80 160
FLAG 224 208 0
FLAG 144 -144 0
FLAG -496 160 0
FLAG -80 256 0
FLAG -80 64 0
FLAG 352 160 0
SYMBOL npn 160 112 R0
SYMATTR InstName Q1
SYMATTR Value 2N2222
SYMBOL res 192 48 R90
WINDOW 0 0 56 VBottom 2
WINDOW 3 32 56 VTop 2
SYMATTR InstName R1
SYMATTR Value 10k
SYMBOL res 208 -80 R0
SYMATTR InstName R2
SYMATTR Value 1k
SYMBOL voltage 240 -144 R90
WINDOW 0 -32 56 VBottom 2
WINDOW 3 32 56 VTop 2
WINDOW 123 0 0 Left 0
WINDOW 39 0 0 Left 0
SYMATTR InstName V1
SYMATTR Value 5
SYMBOL res -256 144 R90
WINDOW 0 0 56 VBottom 2
WINDOW 3 32 56 VTop 2
SYMATTR InstName R3
SYMATTR Value 1k
SYMBOL voltage -400 160 R90
WINDOW 0 -32 56 VBottom 2
WINDOW 3 32 56 VTop 2
WINDOW 123 0 0 Left 0
WINDOW 39 0 0 Left 0
SYMATTR InstName V2
SYMATTR Value SINE(0 .5 1MEG)
SYMBOL cap -160 144 R90
WINDOW 0 0 32 VBottom 2
WINDOW 3 32 32 VTop 2
SYMATTR InstName C1
SYMATTR Value .1µ
SYMBOL cap 48 144 R90
WINDOW 0 0 32 VBottom 2
WINDOW 3 32 32 VTop 2
SYMATTR InstName C2
SYMATTR Value .1µ
SYMBOL diode -96 192 R0
WINDOW 0 48 48 Left 2
WINDOW 3 46 75 Left 2
SYMATTR InstName D1
SYMATTR Value 1N4148
SYMBOL diode -96 64 R0
WINDOW 0 46 -9 Left 2
WINDOW 3 44 18 Left 2
SYMATTR InstName D2
SYMATTR Value 1N4148
SYMBOL res 336 -80 R0
SYMATTR InstName R4
SYMATTR Value 10k
SYMBOL res 336 64 R0
SYMATTR InstName R5
SYMATTR Value 10k
SYMBOL cap 320 48 R90
WINDOW 0 0 32 VBottom 2
WINDOW 3 32 32 VTop 2
SYMATTR InstName C3
SYMATTR Value .1µ
TEXT -560 296 Left 2 !.tran 0 .001 .000990
